Circuit: * U:\GitHub\be-chti-asm\Projet LASER, gestion du son\spice\PWM.asc

Limiting fall time of source v1 to 1.01644e-021
Direct Newton iteration for .op point succeeded.

Date: Wed Apr 07 15:09:19 2021
Total elapsed time: 0.852 seconds.

tnom = 27
temp = 27
method = modified trap
totiter = 300649
traniter = 300645
tranpoints = 150024
accept = 150022
rejected = 2
matrix size = 7
fillins = 0
solver = Normal
Matrix Compiler1:       9 opcodes  0.0/[0.0]/0.0
Matrix Compiler2: off  [0.0]/0.1/0.1

